<configuration> 
    <input> 
        <net-file value="road.net.xml"/> 
        <route-files value="road.rou.xml"/> 
        <additional-files value="rerouter.add.xml"/> 
    </input> 
    <time> 
        <begin value="0"/> 
        <end value="60"/> 
    </time> 
    <output> 
        <fcd-output value="grid.output.xml"/> 
    </output> 
</configuration> 
