<?xml version="1.0" encoding="UTF-8"?>
<!-- generated on 2021-12-07 13:27:14.978324 by generateContinuousRerouters.py v1_7_0+0000-714814baed
  options: -n road.net.xml <doubleminus>end 60 -o rerouter.add.xml
-->
<additional xmlns:xsi="http://www.w3.org/2001/XMLSchema-instance" xsi:noNamespaceSchemaLocation="http://sumo.dlr.de/xsd/additional_file.xsd">
    <route id="A1A0_A0B0" edges="A1A0 A0B0"/>
    <route id="B0A0_A0A1" edges="B0A0 A0A1"/>
    <route id="A0A1_A1A0" edges="A0A1 A1A0 A0B0"/>
    <route id="A0A1_A1A2" edges="A0A1 A1A2"/>
    <route id="A0A1_A1B1" edges="A0A1 A1B1"/>
    <rerouter id="rr_A0A1" edges="A0A1">
        <interval begin="0" end="60">
            <routeProbReroute id="A0A1_A1A0" probability="0"/>
            <routeProbReroute id="A0A1_A1A2" probability="50.0"/>
            <routeProbReroute id="A0A1_A1B1" probability="30.0"/>
        </interval>
    </rerouter>
    <route id="A2A1_A1A0" edges="A2A1 A1A0 A0B0"/>
    <route id="A2A1_A1A2" edges="A2A1 A1A2"/>
    <route id="A2A1_A1B1" edges="A2A1 A1B1"/>
    <rerouter id="rr_A2A1" edges="A2A1">
        <interval begin="0" end="60">
            <routeProbReroute id="A2A1_A1A0" probability="50.0"/>
            <routeProbReroute id="A2A1_A1A2" probability="0"/>
            <routeProbReroute id="A2A1_A1B1" probability="20.0"/>
        </interval>
    </rerouter>
    <route id="B1A1_A1A0" edges="B1A1 A1A0 A0B0"/>
    <route id="B1A1_A1A2" edges="B1A1 A1A2"/>
    <route id="B1A1_A1B1" edges="B1A1 A1B1"/>
    <rerouter id="rr_B1A1" edges="B1A1">
        <interval begin="0" end="60">
            <routeProbReroute id="B1A1_A1A0" probability="20.0"/>
            <routeProbReroute id="B1A1_A1A2" probability="30.0"/>
            <routeProbReroute id="B1A1_A1B1" probability="0"/>
        </interval>
    </rerouter>
    <route id="A0B0_B0A0" edges="A0B0 B0A0 A0A1"/>
    <route id="A0B0_B0B1" edges="A0B0 B0B1"/>
    <route id="A0B0_B0C0" edges="A0B0 B0C0"/>
    <rerouter id="rr_A0B0" edges="A0B0">
        <interval begin="0" end="60">
            <routeProbReroute id="A0B0_B0A0" probability="0"/>
            <routeProbReroute id="A0B0_B0B1" probability="20.0"/>
            <routeProbReroute id="A0B0_B0C0" probability="50.0"/>
        </interval>
    </rerouter>
    <route id="B1B0_B0A0" edges="B1B0 B0A0 A0A1"/>
    <route id="B1B0_B0B1" edges="B1B0 B0B1"/>
    <route id="B1B0_B0C0" edges="B1B0 B0C0"/>
    <rerouter id="rr_B1B0" edges="B1B0">
        <interval begin="0" end="60">
            <routeProbReroute id="B1B0_B0A0" probability="30.0"/>
            <routeProbReroute id="B1B0_B0B1" probability="0"/>
            <routeProbReroute id="B1B0_B0C0" probability="20.0"/>
        </interval>
    </rerouter>
    <route id="C0B0_B0A0" edges="C0B0 B0A0 A0A1"/>
    <route id="C0B0_B0B1" edges="C0B0 B0B1"/>
    <route id="C0B0_B0C0" edges="C0B0 B0C0"/>
    <rerouter id="rr_C0B0" edges="C0B0">
        <interval begin="0" end="60">
            <routeProbReroute id="C0B0_B0A0" probability="50.0"/>
            <routeProbReroute id="C0B0_B0B1" probability="30.0"/>
            <routeProbReroute id="C0B0_B0C0" probability="0"/>
        </interval>
    </rerouter>
    <route id="A1A2_A2A1" edges="A1A2 A2A1"/>
    <route id="A1A2_A2A3" edges="A1A2 A2A3 A3B3"/>
    <route id="A1A2_A2B2" edges="A1A2 A2B2"/>
    <rerouter id="rr_A1A2" edges="A1A2">
        <interval begin="0" end="60">
            <routeProbReroute id="A1A2_A2A1" probability="0"/>
            <routeProbReroute id="A1A2_A2A3" probability="50.0"/>
            <routeProbReroute id="A1A2_A2B2" probability="30.0"/>
        </interval>
    </rerouter>
    <route id="A3A2_A2A1" edges="A3A2 A2A1"/>
    <route id="A3A2_A2A3" edges="A3A2 A2A3 A3B3"/>
    <route id="A3A2_A2B2" edges="A3A2 A2B2"/>
    <rerouter id="rr_A3A2" edges="A3A2">
        <interval begin="0" end="60">
            <routeProbReroute id="A3A2_A2A1" probability="50.0"/>
            <routeProbReroute id="A3A2_A2A3" probability="0"/>
            <routeProbReroute id="A3A2_A2B2" probability="20.0"/>
        </interval>
    </rerouter>
    <route id="B2A2_A2A1" edges="B2A2 A2A1"/>
    <route id="B2A2_A2A3" edges="B2A2 A2A3 A3B3"/>
    <route id="B2A2_A2B2" edges="B2A2 A2B2"/>
    <rerouter id="rr_B2A2" edges="B2A2">
        <interval begin="0" end="60">
            <routeProbReroute id="B2A2_A2A1" probability="20.0"/>
            <routeProbReroute id="B2A2_A2A3" probability="30.0"/>
            <routeProbReroute id="B2A2_A2B2" probability="0"/>
        </interval>
    </rerouter>
    <route id="A1B1_B1A1" edges="A1B1 B1A1"/>
    <route id="A1B1_B1B0" edges="A1B1 B1B0"/>
    <route id="A1B1_B1B2" edges="A1B1 B1B2"/>
    <route id="A1B1_B1C1" edges="A1B1 B1C1"/>
    <rerouter id="rr_A1B1" edges="A1B1">
        <interval begin="0" end="60">
            <routeProbReroute id="A1B1_B1A1" probability="0"/>
            <routeProbReroute id="A1B1_B1B0" probability="30.0"/>
            <routeProbReroute id="A1B1_B1B2" probability="20.0"/>
            <routeProbReroute id="A1B1_B1C1" probability="50.0"/>
        </interval>
    </rerouter>
    <route id="B0B1_B1A1" edges="B0B1 B1A1"/>
    <route id="B0B1_B1B0" edges="B0B1 B1B0"/>
    <route id="B0B1_B1B2" edges="B0B1 B1B2"/>
    <route id="B0B1_B1C1" edges="B0B1 B1C1"/>
    <rerouter id="rr_B0B1" edges="B0B1">
        <interval begin="0" end="60">
            <routeProbReroute id="B0B1_B1A1" probability="20.0"/>
            <routeProbReroute id="B0B1_B1B0" probability="0"/>
            <routeProbReroute id="B0B1_B1B2" probability="50.0"/>
            <routeProbReroute id="B0B1_B1C1" probability="30.0"/>
        </interval>
    </rerouter>
    <route id="B2B1_B1A1" edges="B2B1 B1A1"/>
    <route id="B2B1_B1B0" edges="B2B1 B1B0"/>
    <route id="B2B1_B1B2" edges="B2B1 B1B2"/>
    <route id="B2B1_B1C1" edges="B2B1 B1C1"/>
    <rerouter id="rr_B2B1" edges="B2B1">
        <interval begin="0" end="60">
            <routeProbReroute id="B2B1_B1A1" probability="30.0"/>
            <routeProbReroute id="B2B1_B1B0" probability="50.0"/>
            <routeProbReroute id="B2B1_B1B2" probability="0"/>
            <routeProbReroute id="B2B1_B1C1" probability="20.0"/>
        </interval>
    </rerouter>
    <route id="C1B1_B1A1" edges="C1B1 B1A1"/>
    <route id="C1B1_B1B0" edges="C1B1 B1B0"/>
    <route id="C1B1_B1B2" edges="C1B1 B1B2"/>
    <route id="C1B1_B1C1" edges="C1B1 B1C1"/>
    <rerouter id="rr_C1B1" edges="C1B1">
        <interval begin="0" end="60">
            <routeProbReroute id="C1B1_B1A1" probability="50.0"/>
            <routeProbReroute id="C1B1_B1B0" probability="20.0"/>
            <routeProbReroute id="C1B1_B1B2" probability="30.0"/>
            <routeProbReroute id="C1B1_B1C1" probability="0"/>
        </interval>
    </rerouter>
    <route id="A2A3_A3B3" edges="A2A3 A3B3"/>
    <route id="B3A3_A3A2" edges="B3A3 A3A2"/>
    <route id="A2B2_B2A2" edges="A2B2 B2A2"/>
    <route id="A2B2_B2B1" edges="A2B2 B2B1"/>
    <route id="A2B2_B2B3" edges="A2B2 B2B3"/>
    <route id="A2B2_B2C2" edges="A2B2 B2C2"/>
    <rerouter id="rr_A2B2" edges="A2B2">
        <interval begin="0" end="60">
            <routeProbReroute id="A2B2_B2A2" probability="0"/>
            <routeProbReroute id="A2B2_B2B1" probability="30.0"/>
            <routeProbReroute id="A2B2_B2B3" probability="20.0"/>
            <routeProbReroute id="A2B2_B2C2" probability="50.0"/>
        </interval>
    </rerouter>
    <route id="B1B2_B2A2" edges="B1B2 B2A2"/>
    <route id="B1B2_B2B1" edges="B1B2 B2B1"/>
    <route id="B1B2_B2B3" edges="B1B2 B2B3"/>
    <route id="B1B2_B2C2" edges="B1B2 B2C2"/>
    <rerouter id="rr_B1B2" edges="B1B2">
        <interval begin="0" end="60">
            <routeProbReroute id="B1B2_B2A2" probability="20.0"/>
            <routeProbReroute id="B1B2_B2B1" probability="0"/>
            <routeProbReroute id="B1B2_B2B3" probability="50.0"/>
            <routeProbReroute id="B1B2_B2C2" probability="30.0"/>
        </interval>
    </rerouter>
    <route id="B3B2_B2A2" edges="B3B2 B2A2"/>
    <route id="B3B2_B2B1" edges="B3B2 B2B1"/>
    <route id="B3B2_B2B3" edges="B3B2 B2B3"/>
    <route id="B3B2_B2C2" edges="B3B2 B2C2"/>
    <rerouter id="rr_B3B2" edges="B3B2">
        <interval begin="0" end="60">
            <routeProbReroute id="B3B2_B2A2" probability="30.0"/>
            <routeProbReroute id="B3B2_B2B1" probability="50.0"/>
            <routeProbReroute id="B3B2_B2B3" probability="0"/>
            <routeProbReroute id="B3B2_B2C2" probability="20.0"/>
        </interval>
    </rerouter>
    <route id="C2B2_B2A2" edges="C2B2 B2A2"/>
    <route id="C2B2_B2B1" edges="C2B2 B2B1"/>
    <route id="C2B2_B2B3" edges="C2B2 B2B3"/>
    <route id="C2B2_B2C2" edges="C2B2 B2C2"/>
    <rerouter id="rr_C2B2" edges="C2B2">
        <interval begin="0" end="60">
            <routeProbReroute id="C2B2_B2A2" probability="50.0"/>
            <routeProbReroute id="C2B2_B2B1" probability="20.0"/>
            <routeProbReroute id="C2B2_B2B3" probability="30.0"/>
            <routeProbReroute id="C2B2_B2C2" probability="0"/>
        </interval>
    </rerouter>
    <route id="A3B3_B3A3" edges="A3B3 B3A3 A3A2"/>
    <route id="A3B3_B3B2" edges="A3B3 B3B2"/>
    <route id="A3B3_B3C3" edges="A3B3 B3C3"/>
    <rerouter id="rr_A3B3" edges="A3B3">
        <interval begin="0" end="60">
            <routeProbReroute id="A3B3_B3A3" probability="0"/>
            <routeProbReroute id="A3B3_B3B2" probability="30.0"/>
            <routeProbReroute id="A3B3_B3C3" probability="50.0"/>
        </interval>
    </rerouter>
    <route id="B2B3_B3A3" edges="B2B3 B3A3 A3A2"/>
    <route id="B2B3_B3B2" edges="B2B3 B3B2"/>
    <route id="B2B3_B3C3" edges="B2B3 B3C3"/>
    <rerouter id="rr_B2B3" edges="B2B3">
        <interval begin="0" end="60">
            <routeProbReroute id="B2B3_B3A3" probability="20.0"/>
            <routeProbReroute id="B2B3_B3B2" probability="0"/>
            <routeProbReroute id="B2B3_B3C3" probability="30.0"/>
        </interval>
    </rerouter>
    <route id="C3B3_B3A3" edges="C3B3 B3A3 A3A2"/>
    <route id="C3B3_B3B2" edges="C3B3 B3B2"/>
    <route id="C3B3_B3C3" edges="C3B3 B3C3"/>
    <rerouter id="rr_C3B3" edges="C3B3">
        <interval begin="0" end="60">
            <routeProbReroute id="C3B3_B3A3" probability="50.0"/>
            <routeProbReroute id="C3B3_B3B2" probability="20.0"/>
            <routeProbReroute id="C3B3_B3C3" probability="0"/>
        </interval>
    </rerouter>
    <route id="B0C0_C0B0" edges="B0C0 C0B0"/>
    <route id="B0C0_C0C1" edges="B0C0 C0C1"/>
    <route id="B0C0_C0D0" edges="B0C0 C0D0 D0D1"/>
    <rerouter id="rr_B0C0" edges="B0C0">
        <interval begin="0" end="60">
            <routeProbReroute id="B0C0_C0B0" probability="0"/>
            <routeProbReroute id="B0C0_C0C1" probability="20.0"/>
            <routeProbReroute id="B0C0_C0D0" probability="50.0"/>
        </interval>
    </rerouter>
    <route id="C1C0_C0B0" edges="C1C0 C0B0"/>
    <route id="C1C0_C0C1" edges="C1C0 C0C1"/>
    <route id="C1C0_C0D0" edges="C1C0 C0D0 D0D1"/>
    <rerouter id="rr_C1C0" edges="C1C0">
        <interval begin="0" end="60">
            <routeProbReroute id="C1C0_C0B0" probability="30.0"/>
            <routeProbReroute id="C1C0_C0C1" probability="0"/>
            <routeProbReroute id="C1C0_C0D0" probability="20.0"/>
        </interval>
    </rerouter>
    <route id="D0C0_C0B0" edges="D0C0 C0B0"/>
    <route id="D0C0_C0C1" edges="D0C0 C0C1"/>
    <route id="D0C0_C0D0" edges="D0C0 C0D0 D0D1"/>
    <rerouter id="rr_D0C0" edges="D0C0">
        <interval begin="0" end="60">
            <routeProbReroute id="D0C0_C0B0" probability="50.0"/>
            <routeProbReroute id="D0C0_C0C1" probability="30.0"/>
            <routeProbReroute id="D0C0_C0D0" probability="0"/>
        </interval>
    </rerouter>
    <route id="B1C1_C1B1" edges="B1C1 C1B1"/>
    <route id="B1C1_C1C0" edges="B1C1 C1C0"/>
    <route id="B1C1_C1C2" edges="B1C1 C1C2"/>
    <route id="B1C1_C1D1" edges="B1C1 C1D1"/>
    <rerouter id="rr_B1C1" edges="B1C1">
        <interval begin="0" end="60">
            <routeProbReroute id="B1C1_C1B1" probability="0"/>
            <routeProbReroute id="B1C1_C1C0" probability="30.0"/>
            <routeProbReroute id="B1C1_C1C2" probability="20.0"/>
            <routeProbReroute id="B1C1_C1D1" probability="50.0"/>
        </interval>
    </rerouter>
    <route id="C0C1_C1B1" edges="C0C1 C1B1"/>
    <route id="C0C1_C1C0" edges="C0C1 C1C0"/>
    <route id="C0C1_C1C2" edges="C0C1 C1C2"/>
    <route id="C0C1_C1D1" edges="C0C1 C1D1"/>
    <rerouter id="rr_C0C1" edges="C0C1">
        <interval begin="0" end="60">
            <routeProbReroute id="C0C1_C1B1" probability="20.0"/>
            <routeProbReroute id="C0C1_C1C0" probability="0"/>
            <routeProbReroute id="C0C1_C1C2" probability="50.0"/>
            <routeProbReroute id="C0C1_C1D1" probability="30.0"/>
        </interval>
    </rerouter>
    <route id="C2C1_C1B1" edges="C2C1 C1B1"/>
    <route id="C2C1_C1C0" edges="C2C1 C1C0"/>
    <route id="C2C1_C1C2" edges="C2C1 C1C2"/>
    <route id="C2C1_C1D1" edges="C2C1 C1D1"/>
    <rerouter id="rr_C2C1" edges="C2C1">
        <interval begin="0" end="60">
            <routeProbReroute id="C2C1_C1B1" probability="30.0"/>
            <routeProbReroute id="C2C1_C1C0" probability="50.0"/>
            <routeProbReroute id="C2C1_C1C2" probability="0"/>
            <routeProbReroute id="C2C1_C1D1" probability="20.0"/>
        </interval>
    </rerouter>
    <route id="D1C1_C1B1" edges="D1C1 C1B1"/>
    <route id="D1C1_C1C0" edges="D1C1 C1C0"/>
    <route id="D1C1_C1C2" edges="D1C1 C1C2"/>
    <route id="D1C1_C1D1" edges="D1C1 C1D1"/>
    <rerouter id="rr_D1C1" edges="D1C1">
        <interval begin="0" end="60">
            <routeProbReroute id="D1C1_C1B1" probability="50.0"/>
            <routeProbReroute id="D1C1_C1C0" probability="20.0"/>
            <routeProbReroute id="D1C1_C1C2" probability="30.0"/>
            <routeProbReroute id="D1C1_C1D1" probability="0"/>
        </interval>
    </rerouter>
    <route id="B2C2_C2B2" edges="B2C2 C2B2"/>
    <route id="B2C2_C2C1" edges="B2C2 C2C1"/>
    <route id="B2C2_C2C3" edges="B2C2 C2C3"/>
    <route id="B2C2_C2D2" edges="B2C2 C2D2"/>
    <rerouter id="rr_B2C2" edges="B2C2">
        <interval begin="0" end="60">
            <routeProbReroute id="B2C2_C2B2" probability="0"/>
            <routeProbReroute id="B2C2_C2C1" probability="30.0"/>
            <routeProbReroute id="B2C2_C2C3" probability="20.0"/>
            <routeProbReroute id="B2C2_C2D2" probability="50.0"/>
        </interval>
    </rerouter>
    <route id="C1C2_C2B2" edges="C1C2 C2B2"/>
    <route id="C1C2_C2C1" edges="C1C2 C2C1"/>
    <route id="C1C2_C2C3" edges="C1C2 C2C3"/>
    <route id="C1C2_C2D2" edges="C1C2 C2D2"/>
    <rerouter id="rr_C1C2" edges="C1C2">
        <interval begin="0" end="60">
            <routeProbReroute id="C1C2_C2B2" probability="20.0"/>
            <routeProbReroute id="C1C2_C2C1" probability="0"/>
            <routeProbReroute id="C1C2_C2C3" probability="50.0"/>
            <routeProbReroute id="C1C2_C2D2" probability="30.0"/>
        </interval>
    </rerouter>
    <route id="C3C2_C2B2" edges="C3C2 C2B2"/>
    <route id="C3C2_C2C1" edges="C3C2 C2C1"/>
    <route id="C3C2_C2C3" edges="C3C2 C2C3"/>
    <route id="C3C2_C2D2" edges="C3C2 C2D2"/>
    <rerouter id="rr_C3C2" edges="C3C2">
        <interval begin="0" end="60">
            <routeProbReroute id="C3C2_C2B2" probability="30.0"/>
            <routeProbReroute id="C3C2_C2C1" probability="50.0"/>
            <routeProbReroute id="C3C2_C2C3" probability="0"/>
            <routeProbReroute id="C3C2_C2D2" probability="20.0"/>
        </interval>
    </rerouter>
    <route id="D2C2_C2B2" edges="D2C2 C2B2"/>
    <route id="D2C2_C2C1" edges="D2C2 C2C1"/>
    <route id="D2C2_C2C3" edges="D2C2 C2C3"/>
    <route id="D2C2_C2D2" edges="D2C2 C2D2"/>
    <rerouter id="rr_D2C2" edges="D2C2">
        <interval begin="0" end="60">
            <routeProbReroute id="D2C2_C2B2" probability="50.0"/>
            <routeProbReroute id="D2C2_C2C1" probability="20.0"/>
            <routeProbReroute id="D2C2_C2C3" probability="30.0"/>
            <routeProbReroute id="D2C2_C2D2" probability="0"/>
        </interval>
    </rerouter>
    <route id="B3C3_C3B3" edges="B3C3 C3B3"/>
    <route id="B3C3_C3C2" edges="B3C3 C3C2"/>
    <route id="B3C3_C3D3" edges="B3C3 C3D3 D3D2"/>
    <rerouter id="rr_B3C3" edges="B3C3">
        <interval begin="0" end="60">
            <routeProbReroute id="B3C3_C3B3" probability="0"/>
            <routeProbReroute id="B3C3_C3C2" probability="30.0"/>
            <routeProbReroute id="B3C3_C3D3" probability="50.0"/>
        </interval>
    </rerouter>
    <route id="C2C3_C3B3" edges="C2C3 C3B3"/>
    <route id="C2C3_C3C2" edges="C2C3 C3C2"/>
    <route id="C2C3_C3D3" edges="C2C3 C3D3 D3D2"/>
    <rerouter id="rr_C2C3" edges="C2C3">
        <interval begin="0" end="60">
            <routeProbReroute id="C2C3_C3B3" probability="20.0"/>
            <routeProbReroute id="C2C3_C3C2" probability="0"/>
            <routeProbReroute id="C2C3_C3D3" probability="30.0"/>
        </interval>
    </rerouter>
    <route id="D3C3_C3B3" edges="D3C3 C3B3"/>
    <route id="D3C3_C3C2" edges="D3C3 C3C2"/>
    <route id="D3C3_C3D3" edges="D3C3 C3D3 D3D2"/>
    <rerouter id="rr_D3C3" edges="D3C3">
        <interval begin="0" end="60">
            <routeProbReroute id="D3C3_C3B3" probability="50.0"/>
            <routeProbReroute id="D3C3_C3C2" probability="20.0"/>
            <routeProbReroute id="D3C3_C3D3" probability="0"/>
        </interval>
    </rerouter>
    <route id="C0D0_D0D1" edges="C0D0 D0D1"/>
    <route id="D1D0_D0C0" edges="D1D0 D0C0"/>
    <route id="C1D1_D1C1" edges="C1D1 D1C1"/>
    <route id="C1D1_D1D0" edges="C1D1 D1D0 D0C0"/>
    <route id="C1D1_D1D2" edges="C1D1 D1D2"/>
    <rerouter id="rr_C1D1" edges="C1D1">
        <interval begin="0" end="60">
            <routeProbReroute id="C1D1_D1C1" probability="0"/>
            <routeProbReroute id="C1D1_D1D0" probability="30.0"/>
            <routeProbReroute id="C1D1_D1D2" probability="20.0"/>
        </interval>
    </rerouter>
    <route id="D0D1_D1C1" edges="D0D1 D1C1"/>
    <route id="D0D1_D1D0" edges="D0D1 D1D0 D0C0"/>
    <route id="D0D1_D1D2" edges="D0D1 D1D2"/>
    <rerouter id="rr_D0D1" edges="D0D1">
        <interval begin="0" end="60">
            <routeProbReroute id="D0D1_D1C1" probability="20.0"/>
            <routeProbReroute id="D0D1_D1D0" probability="0"/>
            <routeProbReroute id="D0D1_D1D2" probability="50.0"/>
        </interval>
    </rerouter>
    <route id="D2D1_D1C1" edges="D2D1 D1C1"/>
    <route id="D2D1_D1D0" edges="D2D1 D1D0 D0C0"/>
    <route id="D2D1_D1D2" edges="D2D1 D1D2"/>
    <rerouter id="rr_D2D1" edges="D2D1">
        <interval begin="0" end="60">
            <routeProbReroute id="D2D1_D1C1" probability="30.0"/>
            <routeProbReroute id="D2D1_D1D0" probability="50.0"/>
            <routeProbReroute id="D2D1_D1D2" probability="0"/>
        </interval>
    </rerouter>
    <route id="C2D2_D2C2" edges="C2D2 D2C2"/>
    <route id="C2D2_D2D1" edges="C2D2 D2D1"/>
    <route id="C2D2_D2D3" edges="C2D2 D2D3 D3C3"/>
    <rerouter id="rr_C2D2" edges="C2D2">
        <interval begin="0" end="60">
            <routeProbReroute id="C2D2_D2C2" probability="0"/>
            <routeProbReroute id="C2D2_D2D1" probability="30.0"/>
            <routeProbReroute id="C2D2_D2D3" probability="20.0"/>
        </interval>
    </rerouter>
    <route id="D1D2_D2C2" edges="D1D2 D2C2"/>
    <route id="D1D2_D2D1" edges="D1D2 D2D1"/>
    <route id="D1D2_D2D3" edges="D1D2 D2D3 D3C3"/>
    <rerouter id="rr_D1D2" edges="D1D2">
        <interval begin="0" end="60">
            <routeProbReroute id="D1D2_D2C2" probability="20.0"/>
            <routeProbReroute id="D1D2_D2D1" probability="0"/>
            <routeProbReroute id="D1D2_D2D3" probability="50.0"/>
        </interval>
    </rerouter>
    <route id="D3D2_D2C2" edges="D3D2 D2C2"/>
    <route id="D3D2_D2D1" edges="D3D2 D2D1"/>
    <route id="D3D2_D2D3" edges="D3D2 D2D3 D3C3"/>
    <rerouter id="rr_D3D2" edges="D3D2">
        <interval begin="0" end="60">
            <routeProbReroute id="D3D2_D2C2" probability="30.0"/>
            <routeProbReroute id="D3D2_D2D1" probability="50.0"/>
            <routeProbReroute id="D3D2_D2D3" probability="0"/>
        </interval>
    </rerouter>
    <route id="C3D3_D3D2" edges="C3D3 D3D2"/>
    <route id="D2D3_D3C3" edges="D2D3 D3C3"/>
</additional>
