<?xml version="1.0" encoding="UTF-8"?>
<!-- generated on 2021-12-10 17:16:55.248120 by generateContinuousRerouters.py v1_7_0+0000-714814baed
  options: -n road.net.xml <doubleminus>end 60 -o rerouter.add.xml
-->
<additional xmlns:xsi="http://www.w3.org/2001/XMLSchema-instance" xsi:noNamespaceSchemaLocation="http://sumo.dlr.de/xsd/additional_file.xsd">
    <route id="B10A1_A1B1" edges="B10A1 A1B1"/>
    <route id="B10A1_A1B10" edges="B10A1 A1B10"/>
    <route id="B10A1_A1B11" edges="B10A1 A1B11"/>
    <route id="B10A1_A1B12" edges="B10A1 A1B12"/>
    <route id="B10A1_A1B2" edges="B10A1 A1B2"/>
    <route id="B10A1_A1B3" edges="B10A1 A1B3"/>
    <route id="B10A1_A1B4" edges="B10A1 A1B4"/>
    <route id="B10A1_A1B5" edges="B10A1 A1B5"/>
    <route id="B10A1_A1B6" edges="B10A1 A1B6"/>
    <route id="B10A1_A1B7" edges="B10A1 A1B7"/>
    <route id="B10A1_A1B8" edges="B10A1 A1B8"/>
    <route id="B10A1_A1B9" edges="B10A1 A1B9"/>
    <rerouter id="rr_B10A1" edges="B10A1">
        <interval begin="0" end="60">
            <routeProbReroute id="B10A1_A1B1" probability="30.0"/>
            <routeProbReroute id="B10A1_A1B10" probability="0"/>
            <routeProbReroute id="B10A1_A1B11" probability="30.0"/>
            <routeProbReroute id="B10A1_A1B12" probability="30.0"/>
            <routeProbReroute id="B10A1_A1B2" probability="30.0"/>
            <routeProbReroute id="B10A1_A1B3" probability="30.0"/>
            <routeProbReroute id="B10A1_A1B4" probability="50.0"/>
            <routeProbReroute id="B10A1_A1B5" probability="20.0"/>
            <routeProbReroute id="B10A1_A1B6" probability="20.0"/>
            <routeProbReroute id="B10A1_A1B7" probability="20.0"/>
            <routeProbReroute id="B10A1_A1B8" probability="20.0"/>
            <routeProbReroute id="B10A1_A1B9" probability="20.0"/>
        </interval>
    </rerouter>
    <route id="B11A1_A1B1" edges="B11A1 A1B1"/>
    <route id="B11A1_A1B10" edges="B11A1 A1B10"/>
    <route id="B11A1_A1B11" edges="B11A1 A1B11"/>
    <route id="B11A1_A1B12" edges="B11A1 A1B12"/>
    <route id="B11A1_A1B2" edges="B11A1 A1B2"/>
    <route id="B11A1_A1B3" edges="B11A1 A1B3"/>
    <route id="B11A1_A1B4" edges="B11A1 A1B4"/>
    <route id="B11A1_A1B5" edges="B11A1 A1B5"/>
    <route id="B11A1_A1B6" edges="B11A1 A1B6"/>
    <route id="B11A1_A1B7" edges="B11A1 A1B7"/>
    <route id="B11A1_A1B8" edges="B11A1 A1B8"/>
    <route id="B11A1_A1B9" edges="B11A1 A1B9"/>
    <rerouter id="rr_B11A1" edges="B11A1">
        <interval begin="0" end="60">
            <routeProbReroute id="B11A1_A1B1" probability="30.0"/>
            <routeProbReroute id="B11A1_A1B10" probability="20.0"/>
            <routeProbReroute id="B11A1_A1B11" probability="0"/>
            <routeProbReroute id="B11A1_A1B12" probability="30.0"/>
            <routeProbReroute id="B11A1_A1B2" probability="30.0"/>
            <routeProbReroute id="B11A1_A1B3" probability="30.0"/>
            <routeProbReroute id="B11A1_A1B4" probability="30.0"/>
            <routeProbReroute id="B11A1_A1B5" probability="50.0"/>
            <routeProbReroute id="B11A1_A1B6" probability="20.0"/>
            <routeProbReroute id="B11A1_A1B7" probability="20.0"/>
            <routeProbReroute id="B11A1_A1B8" probability="20.0"/>
            <routeProbReroute id="B11A1_A1B9" probability="20.0"/>
        </interval>
    </rerouter>
    <route id="B12A1_A1B1" edges="B12A1 A1B1"/>
    <route id="B12A1_A1B10" edges="B12A1 A1B10"/>
    <route id="B12A1_A1B11" edges="B12A1 A1B11"/>
    <route id="B12A1_A1B12" edges="B12A1 A1B12"/>
    <route id="B12A1_A1B2" edges="B12A1 A1B2"/>
    <route id="B12A1_A1B3" edges="B12A1 A1B3"/>
    <route id="B12A1_A1B4" edges="B12A1 A1B4"/>
    <route id="B12A1_A1B5" edges="B12A1 A1B5"/>
    <route id="B12A1_A1B6" edges="B12A1 A1B6"/>
    <route id="B12A1_A1B7" edges="B12A1 A1B7"/>
    <route id="B12A1_A1B8" edges="B12A1 A1B8"/>
    <route id="B12A1_A1B9" edges="B12A1 A1B9"/>
    <rerouter id="rr_B12A1" edges="B12A1">
        <interval begin="0" end="60">
            <routeProbReroute id="B12A1_A1B1" probability="30.0"/>
            <routeProbReroute id="B12A1_A1B10" probability="20.0"/>
            <routeProbReroute id="B12A1_A1B11" probability="20.0"/>
            <routeProbReroute id="B12A1_A1B12" probability="0"/>
            <routeProbReroute id="B12A1_A1B2" probability="30.0"/>
            <routeProbReroute id="B12A1_A1B3" probability="30.0"/>
            <routeProbReroute id="B12A1_A1B4" probability="30.0"/>
            <routeProbReroute id="B12A1_A1B5" probability="30.0"/>
            <routeProbReroute id="B12A1_A1B6" probability="50.0"/>
            <routeProbReroute id="B12A1_A1B7" probability="20.0"/>
            <routeProbReroute id="B12A1_A1B8" probability="20.0"/>
            <routeProbReroute id="B12A1_A1B9" probability="20.0"/>
        </interval>
    </rerouter>
    <route id="B1A1_A1B1" edges="B1A1 A1B1"/>
    <route id="B1A1_A1B10" edges="B1A1 A1B10"/>
    <route id="B1A1_A1B11" edges="B1A1 A1B11"/>
    <route id="B1A1_A1B12" edges="B1A1 A1B12"/>
    <route id="B1A1_A1B2" edges="B1A1 A1B2"/>
    <route id="B1A1_A1B3" edges="B1A1 A1B3"/>
    <route id="B1A1_A1B4" edges="B1A1 A1B4"/>
    <route id="B1A1_A1B5" edges="B1A1 A1B5"/>
    <route id="B1A1_A1B6" edges="B1A1 A1B6"/>
    <route id="B1A1_A1B7" edges="B1A1 A1B7"/>
    <route id="B1A1_A1B8" edges="B1A1 A1B8"/>
    <route id="B1A1_A1B9" edges="B1A1 A1B9"/>
    <rerouter id="rr_B1A1" edges="B1A1">
        <interval begin="0" end="60">
            <routeProbReroute id="B1A1_A1B1" probability="0"/>
            <routeProbReroute id="B1A1_A1B10" probability="20.0"/>
            <routeProbReroute id="B1A1_A1B11" probability="20.0"/>
            <routeProbReroute id="B1A1_A1B12" probability="20.0"/>
            <routeProbReroute id="B1A1_A1B2" probability="30.0"/>
            <routeProbReroute id="B1A1_A1B3" probability="30.0"/>
            <routeProbReroute id="B1A1_A1B4" probability="30.0"/>
            <routeProbReroute id="B1A1_A1B5" probability="30.0"/>
            <routeProbReroute id="B1A1_A1B6" probability="30.0"/>
            <routeProbReroute id="B1A1_A1B7" probability="50.0"/>
            <routeProbReroute id="B1A1_A1B8" probability="20.0"/>
            <routeProbReroute id="B1A1_A1B9" probability="20.0"/>
        </interval>
    </rerouter>
    <route id="B2A1_A1B1" edges="B2A1 A1B1"/>
    <route id="B2A1_A1B10" edges="B2A1 A1B10"/>
    <route id="B2A1_A1B11" edges="B2A1 A1B11"/>
    <route id="B2A1_A1B12" edges="B2A1 A1B12"/>
    <route id="B2A1_A1B2" edges="B2A1 A1B2"/>
    <route id="B2A1_A1B3" edges="B2A1 A1B3"/>
    <route id="B2A1_A1B4" edges="B2A1 A1B4"/>
    <route id="B2A1_A1B5" edges="B2A1 A1B5"/>
    <route id="B2A1_A1B6" edges="B2A1 A1B6"/>
    <route id="B2A1_A1B7" edges="B2A1 A1B7"/>
    <route id="B2A1_A1B8" edges="B2A1 A1B8"/>
    <route id="B2A1_A1B9" edges="B2A1 A1B9"/>
    <rerouter id="rr_B2A1" edges="B2A1">
        <interval begin="0" end="60">
            <routeProbReroute id="B2A1_A1B1" probability="20.0"/>
            <routeProbReroute id="B2A1_A1B10" probability="20.0"/>
            <routeProbReroute id="B2A1_A1B11" probability="20.0"/>
            <routeProbReroute id="B2A1_A1B12" probability="20.0"/>
            <routeProbReroute id="B2A1_A1B2" probability="0"/>
            <routeProbReroute id="B2A1_A1B3" probability="30.0"/>
            <routeProbReroute id="B2A1_A1B4" probability="30.0"/>
            <routeProbReroute id="B2A1_A1B5" probability="30.0"/>
            <routeProbReroute id="B2A1_A1B6" probability="30.0"/>
            <routeProbReroute id="B2A1_A1B7" probability="30.0"/>
            <routeProbReroute id="B2A1_A1B8" probability="50.0"/>
            <routeProbReroute id="B2A1_A1B9" probability="20.0"/>
        </interval>
    </rerouter>
    <route id="B3A1_A1B1" edges="B3A1 A1B1"/>
    <route id="B3A1_A1B10" edges="B3A1 A1B10"/>
    <route id="B3A1_A1B11" edges="B3A1 A1B11"/>
    <route id="B3A1_A1B12" edges="B3A1 A1B12"/>
    <route id="B3A1_A1B2" edges="B3A1 A1B2"/>
    <route id="B3A1_A1B3" edges="B3A1 A1B3"/>
    <route id="B3A1_A1B4" edges="B3A1 A1B4"/>
    <route id="B3A1_A1B5" edges="B3A1 A1B5"/>
    <route id="B3A1_A1B6" edges="B3A1 A1B6"/>
    <route id="B3A1_A1B7" edges="B3A1 A1B7"/>
    <route id="B3A1_A1B8" edges="B3A1 A1B8"/>
    <route id="B3A1_A1B9" edges="B3A1 A1B9"/>
    <rerouter id="rr_B3A1" edges="B3A1">
        <interval begin="0" end="60">
            <routeProbReroute id="B3A1_A1B1" probability="20.0"/>
            <routeProbReroute id="B3A1_A1B10" probability="20.0"/>
            <routeProbReroute id="B3A1_A1B11" probability="20.0"/>
            <routeProbReroute id="B3A1_A1B12" probability="20.0"/>
            <routeProbReroute id="B3A1_A1B2" probability="20.0"/>
            <routeProbReroute id="B3A1_A1B3" probability="0"/>
            <routeProbReroute id="B3A1_A1B4" probability="30.0"/>
            <routeProbReroute id="B3A1_A1B5" probability="30.0"/>
            <routeProbReroute id="B3A1_A1B6" probability="30.0"/>
            <routeProbReroute id="B3A1_A1B7" probability="30.0"/>
            <routeProbReroute id="B3A1_A1B8" probability="30.0"/>
            <routeProbReroute id="B3A1_A1B9" probability="50.0"/>
        </interval>
    </rerouter>
    <route id="B4A1_A1B1" edges="B4A1 A1B1"/>
    <route id="B4A1_A1B10" edges="B4A1 A1B10"/>
    <route id="B4A1_A1B11" edges="B4A1 A1B11"/>
    <route id="B4A1_A1B12" edges="B4A1 A1B12"/>
    <route id="B4A1_A1B2" edges="B4A1 A1B2"/>
    <route id="B4A1_A1B3" edges="B4A1 A1B3"/>
    <route id="B4A1_A1B4" edges="B4A1 A1B4"/>
    <route id="B4A1_A1B5" edges="B4A1 A1B5"/>
    <route id="B4A1_A1B6" edges="B4A1 A1B6"/>
    <route id="B4A1_A1B7" edges="B4A1 A1B7"/>
    <route id="B4A1_A1B8" edges="B4A1 A1B8"/>
    <route id="B4A1_A1B9" edges="B4A1 A1B9"/>
    <rerouter id="rr_B4A1" edges="B4A1">
        <interval begin="0" end="60">
            <routeProbReroute id="B4A1_A1B1" probability="20.0"/>
            <routeProbReroute id="B4A1_A1B10" probability="50.0"/>
            <routeProbReroute id="B4A1_A1B11" probability="20.0"/>
            <routeProbReroute id="B4A1_A1B12" probability="20.0"/>
            <routeProbReroute id="B4A1_A1B2" probability="20.0"/>
            <routeProbReroute id="B4A1_A1B3" probability="20.0"/>
            <routeProbReroute id="B4A1_A1B4" probability="0"/>
            <routeProbReroute id="B4A1_A1B5" probability="30.0"/>
            <routeProbReroute id="B4A1_A1B6" probability="30.0"/>
            <routeProbReroute id="B4A1_A1B7" probability="30.0"/>
            <routeProbReroute id="B4A1_A1B8" probability="30.0"/>
            <routeProbReroute id="B4A1_A1B9" probability="30.0"/>
        </interval>
    </rerouter>
    <route id="B5A1_A1B1" edges="B5A1 A1B1"/>
    <route id="B5A1_A1B10" edges="B5A1 A1B10"/>
    <route id="B5A1_A1B11" edges="B5A1 A1B11"/>
    <route id="B5A1_A1B12" edges="B5A1 A1B12"/>
    <route id="B5A1_A1B2" edges="B5A1 A1B2"/>
    <route id="B5A1_A1B3" edges="B5A1 A1B3"/>
    <route id="B5A1_A1B4" edges="B5A1 A1B4"/>
    <route id="B5A1_A1B5" edges="B5A1 A1B5"/>
    <route id="B5A1_A1B6" edges="B5A1 A1B6"/>
    <route id="B5A1_A1B7" edges="B5A1 A1B7"/>
    <route id="B5A1_A1B8" edges="B5A1 A1B8"/>
    <route id="B5A1_A1B9" edges="B5A1 A1B9"/>
    <rerouter id="rr_B5A1" edges="B5A1">
        <interval begin="0" end="60">
            <routeProbReroute id="B5A1_A1B1" probability="20.0"/>
            <routeProbReroute id="B5A1_A1B10" probability="30.0"/>
            <routeProbReroute id="B5A1_A1B11" probability="50.0"/>
            <routeProbReroute id="B5A1_A1B12" probability="20.0"/>
            <routeProbReroute id="B5A1_A1B2" probability="20.0"/>
            <routeProbReroute id="B5A1_A1B3" probability="20.0"/>
            <routeProbReroute id="B5A1_A1B4" probability="20.0"/>
            <routeProbReroute id="B5A1_A1B5" probability="0"/>
            <routeProbReroute id="B5A1_A1B6" probability="30.0"/>
            <routeProbReroute id="B5A1_A1B7" probability="30.0"/>
            <routeProbReroute id="B5A1_A1B8" probability="30.0"/>
            <routeProbReroute id="B5A1_A1B9" probability="30.0"/>
        </interval>
    </rerouter>
    <route id="B6A1_A1B1" edges="B6A1 A1B1"/>
    <route id="B6A1_A1B10" edges="B6A1 A1B10"/>
    <route id="B6A1_A1B11" edges="B6A1 A1B11"/>
    <route id="B6A1_A1B12" edges="B6A1 A1B12"/>
    <route id="B6A1_A1B2" edges="B6A1 A1B2"/>
    <route id="B6A1_A1B3" edges="B6A1 A1B3"/>
    <route id="B6A1_A1B4" edges="B6A1 A1B4"/>
    <route id="B6A1_A1B5" edges="B6A1 A1B5"/>
    <route id="B6A1_A1B6" edges="B6A1 A1B6"/>
    <route id="B6A1_A1B7" edges="B6A1 A1B7"/>
    <route id="B6A1_A1B8" edges="B6A1 A1B8"/>
    <route id="B6A1_A1B9" edges="B6A1 A1B9"/>
    <rerouter id="rr_B6A1" edges="B6A1">
        <interval begin="0" end="60">
            <routeProbReroute id="B6A1_A1B1" probability="20.0"/>
            <routeProbReroute id="B6A1_A1B10" probability="30.0"/>
            <routeProbReroute id="B6A1_A1B11" probability="30.0"/>
            <routeProbReroute id="B6A1_A1B12" probability="50.0"/>
            <routeProbReroute id="B6A1_A1B2" probability="20.0"/>
            <routeProbReroute id="B6A1_A1B3" probability="20.0"/>
            <routeProbReroute id="B6A1_A1B4" probability="20.0"/>
            <routeProbReroute id="B6A1_A1B5" probability="20.0"/>
            <routeProbReroute id="B6A1_A1B6" probability="0"/>
            <routeProbReroute id="B6A1_A1B7" probability="30.0"/>
            <routeProbReroute id="B6A1_A1B8" probability="30.0"/>
            <routeProbReroute id="B6A1_A1B9" probability="30.0"/>
        </interval>
    </rerouter>
    <route id="B7A1_A1B1" edges="B7A1 A1B1"/>
    <route id="B7A1_A1B10" edges="B7A1 A1B10"/>
    <route id="B7A1_A1B11" edges="B7A1 A1B11"/>
    <route id="B7A1_A1B12" edges="B7A1 A1B12"/>
    <route id="B7A1_A1B2" edges="B7A1 A1B2"/>
    <route id="B7A1_A1B3" edges="B7A1 A1B3"/>
    <route id="B7A1_A1B4" edges="B7A1 A1B4"/>
    <route id="B7A1_A1B5" edges="B7A1 A1B5"/>
    <route id="B7A1_A1B6" edges="B7A1 A1B6"/>
    <route id="B7A1_A1B7" edges="B7A1 A1B7"/>
    <route id="B7A1_A1B8" edges="B7A1 A1B8"/>
    <route id="B7A1_A1B9" edges="B7A1 A1B9"/>
    <rerouter id="rr_B7A1" edges="B7A1">
        <interval begin="0" end="60">
            <routeProbReroute id="B7A1_A1B1" probability="50.0"/>
            <routeProbReroute id="B7A1_A1B10" probability="30.0"/>
            <routeProbReroute id="B7A1_A1B11" probability="30.0"/>
            <routeProbReroute id="B7A1_A1B12" probability="30.0"/>
            <routeProbReroute id="B7A1_A1B2" probability="20.0"/>
            <routeProbReroute id="B7A1_A1B3" probability="20.0"/>
            <routeProbReroute id="B7A1_A1B4" probability="20.0"/>
            <routeProbReroute id="B7A1_A1B5" probability="20.0"/>
            <routeProbReroute id="B7A1_A1B6" probability="20.0"/>
            <routeProbReroute id="B7A1_A1B7" probability="0"/>
            <routeProbReroute id="B7A1_A1B8" probability="30.0"/>
            <routeProbReroute id="B7A1_A1B9" probability="30.0"/>
        </interval>
    </rerouter>
    <route id="B8A1_A1B1" edges="B8A1 A1B1"/>
    <route id="B8A1_A1B10" edges="B8A1 A1B10"/>
    <route id="B8A1_A1B11" edges="B8A1 A1B11"/>
    <route id="B8A1_A1B12" edges="B8A1 A1B12"/>
    <route id="B8A1_A1B2" edges="B8A1 A1B2"/>
    <route id="B8A1_A1B3" edges="B8A1 A1B3"/>
    <route id="B8A1_A1B4" edges="B8A1 A1B4"/>
    <route id="B8A1_A1B5" edges="B8A1 A1B5"/>
    <route id="B8A1_A1B6" edges="B8A1 A1B6"/>
    <route id="B8A1_A1B7" edges="B8A1 A1B7"/>
    <route id="B8A1_A1B8" edges="B8A1 A1B8"/>
    <route id="B8A1_A1B9" edges="B8A1 A1B9"/>
    <rerouter id="rr_B8A1" edges="B8A1">
        <interval begin="0" end="60">
            <routeProbReroute id="B8A1_A1B1" probability="30.0"/>
            <routeProbReroute id="B8A1_A1B10" probability="30.0"/>
            <routeProbReroute id="B8A1_A1B11" probability="30.0"/>
            <routeProbReroute id="B8A1_A1B12" probability="30.0"/>
            <routeProbReroute id="B8A1_A1B2" probability="50.0"/>
            <routeProbReroute id="B8A1_A1B3" probability="20.0"/>
            <routeProbReroute id="B8A1_A1B4" probability="20.0"/>
            <routeProbReroute id="B8A1_A1B5" probability="20.0"/>
            <routeProbReroute id="B8A1_A1B6" probability="20.0"/>
            <routeProbReroute id="B8A1_A1B7" probability="20.0"/>
            <routeProbReroute id="B8A1_A1B8" probability="0"/>
            <routeProbReroute id="B8A1_A1B9" probability="30.0"/>
        </interval>
    </rerouter>
    <route id="B9A1_A1B1" edges="B9A1 A1B1"/>
    <route id="B9A1_A1B10" edges="B9A1 A1B10"/>
    <route id="B9A1_A1B11" edges="B9A1 A1B11"/>
    <route id="B9A1_A1B12" edges="B9A1 A1B12"/>
    <route id="B9A1_A1B2" edges="B9A1 A1B2"/>
    <route id="B9A1_A1B3" edges="B9A1 A1B3"/>
    <route id="B9A1_A1B4" edges="B9A1 A1B4"/>
    <route id="B9A1_A1B5" edges="B9A1 A1B5"/>
    <route id="B9A1_A1B6" edges="B9A1 A1B6"/>
    <route id="B9A1_A1B7" edges="B9A1 A1B7"/>
    <route id="B9A1_A1B8" edges="B9A1 A1B8"/>
    <route id="B9A1_A1B9" edges="B9A1 A1B9"/>
    <rerouter id="rr_B9A1" edges="B9A1">
        <interval begin="0" end="60">
            <routeProbReroute id="B9A1_A1B1" probability="30.0"/>
            <routeProbReroute id="B9A1_A1B10" probability="30.0"/>
            <routeProbReroute id="B9A1_A1B11" probability="30.0"/>
            <routeProbReroute id="B9A1_A1B12" probability="30.0"/>
            <routeProbReroute id="B9A1_A1B2" probability="30.0"/>
            <routeProbReroute id="B9A1_A1B3" probability="50.0"/>
            <routeProbReroute id="B9A1_A1B4" probability="20.0"/>
            <routeProbReroute id="B9A1_A1B5" probability="20.0"/>
            <routeProbReroute id="B9A1_A1B6" probability="20.0"/>
            <routeProbReroute id="B9A1_A1B7" probability="20.0"/>
            <routeProbReroute id="B9A1_A1B8" probability="20.0"/>
            <routeProbReroute id="B9A1_A1B9" probability="0"/>
        </interval>
    </rerouter>
    <route id="A1B1_B1A1" edges="A1B1 B1A1"/>
    <route id="A1B1_B1B12" edges="A1B1 B1B12"/>
    <route id="A1B1_B1B2" edges="A1B1 B1B2"/>
    <route id="A1B1_B1C1" edges="A1B1 B1C1"/>
    <rerouter id="rr_A1B1" edges="A1B1">
        <interval begin="0" end="60">
            <routeProbReroute id="A1B1_B1A1" probability="0"/>
            <routeProbReroute id="A1B1_B1B12" probability="30.0"/>
            <routeProbReroute id="A1B1_B1B2" probability="20.0"/>
            <routeProbReroute id="A1B1_B1C1" probability="50.0"/>
        </interval>
    </rerouter>
    <route id="B12B1_B1A1" edges="B12B1 B1A1"/>
    <route id="B12B1_B1B12" edges="B12B1 B1B12"/>
    <route id="B12B1_B1B2" edges="B12B1 B1B2"/>
    <route id="B12B1_B1C1" edges="B12B1 B1C1"/>
    <rerouter id="rr_B12B1" edges="B12B1">
        <interval begin="0" end="60">
            <routeProbReroute id="B12B1_B1A1" probability="20.0"/>
            <routeProbReroute id="B12B1_B1B12" probability="0"/>
            <routeProbReroute id="B12B1_B1B2" probability="50.0"/>
            <routeProbReroute id="B12B1_B1C1" probability="30.0"/>
        </interval>
    </rerouter>
    <route id="B2B1_B1A1" edges="B2B1 B1A1"/>
    <route id="B2B1_B1B12" edges="B2B1 B1B12"/>
    <route id="B2B1_B1B2" edges="B2B1 B1B2"/>
    <route id="B2B1_B1C1" edges="B2B1 B1C1"/>
    <rerouter id="rr_B2B1" edges="B2B1">
        <interval begin="0" end="60">
            <routeProbReroute id="B2B1_B1A1" probability="30.0"/>
            <routeProbReroute id="B2B1_B1B12" probability="50.0"/>
            <routeProbReroute id="B2B1_B1B2" probability="0"/>
            <routeProbReroute id="B2B1_B1C1" probability="20.0"/>
        </interval>
    </rerouter>
    <route id="C1B1_B1A1" edges="C1B1 B1A1"/>
    <route id="C1B1_B1B12" edges="C1B1 B1B12"/>
    <route id="C1B1_B1B2" edges="C1B1 B1B2"/>
    <route id="C1B1_B1C1" edges="C1B1 B1C1"/>
    <rerouter id="rr_C1B1" edges="C1B1">
        <interval begin="0" end="60">
            <routeProbReroute id="C1B1_B1A1" probability="50.0"/>
            <routeProbReroute id="C1B1_B1B12" probability="20.0"/>
            <routeProbReroute id="C1B1_B1B2" probability="30.0"/>
            <routeProbReroute id="C1B1_B1C1" probability="0"/>
        </interval>
    </rerouter>
    <route id="A1B10_B10A1" edges="A1B10 B10A1"/>
    <route id="A1B10_B10B11" edges="A1B10 B10B11"/>
    <route id="A1B10_B10B9" edges="A1B10 B10B9"/>
    <route id="A1B10_B10C10" edges="A1B10 B10C10"/>
    <rerouter id="rr_A1B10" edges="A1B10">
        <interval begin="0" end="60">
            <routeProbReroute id="A1B10_B10A1" probability="0"/>
            <routeProbReroute id="A1B10_B10B11" probability="20.0"/>
            <routeProbReroute id="A1B10_B10B9" probability="30.0"/>
            <routeProbReroute id="A1B10_B10C10" probability="50.0"/>
        </interval>
    </rerouter>
    <route id="B11B10_B10A1" edges="B11B10 B10A1"/>
    <route id="B11B10_B10B11" edges="B11B10 B10B11"/>
    <route id="B11B10_B10B9" edges="B11B10 B10B9"/>
    <route id="B11B10_B10C10" edges="B11B10 B10C10"/>
    <rerouter id="rr_B11B10" edges="B11B10">
        <interval begin="0" end="60">
            <routeProbReroute id="B11B10_B10A1" probability="30.0"/>
            <routeProbReroute id="B11B10_B10B11" probability="0"/>
            <routeProbReroute id="B11B10_B10B9" probability="50.0"/>
            <routeProbReroute id="B11B10_B10C10" probability="20.0"/>
        </interval>
    </rerouter>
    <route id="B9B10_B10A1" edges="B9B10 B10A1"/>
    <route id="B9B10_B10B11" edges="B9B10 B10B11"/>
    <route id="B9B10_B10B9" edges="B9B10 B10B9"/>
    <route id="B9B10_B10C10" edges="B9B10 B10C10"/>
    <rerouter id="rr_B9B10" edges="B9B10">
        <interval begin="0" end="60">
            <routeProbReroute id="B9B10_B10A1" probability="20.0"/>
            <routeProbReroute id="B9B10_B10B11" probability="50.0"/>
            <routeProbReroute id="B9B10_B10B9" probability="0"/>
            <routeProbReroute id="B9B10_B10C10" probability="30.0"/>
        </interval>
    </rerouter>
    <route id="C10B10_B10A1" edges="C10B10 B10A1"/>
    <route id="C10B10_B10B11" edges="C10B10 B10B11"/>
    <route id="C10B10_B10B9" edges="C10B10 B10B9"/>
    <route id="C10B10_B10C10" edges="C10B10 B10C10"/>
    <rerouter id="rr_C10B10" edges="C10B10">
        <interval begin="0" end="60">
            <routeProbReroute id="C10B10_B10A1" probability="50.0"/>
            <routeProbReroute id="C10B10_B10B11" probability="30.0"/>
            <routeProbReroute id="C10B10_B10B9" probability="20.0"/>
            <routeProbReroute id="C10B10_B10C10" probability="0"/>
        </interval>
    </rerouter>
    <route id="A1B11_B11A1" edges="A1B11 B11A1"/>
    <route id="A1B11_B11B10" edges="A1B11 B11B10"/>
    <route id="A1B11_B11B12" edges="A1B11 B11B12"/>
    <route id="A1B11_B11C11" edges="A1B11 B11C11"/>
    <rerouter id="rr_A1B11" edges="A1B11">
        <interval begin="0" end="60">
            <routeProbReroute id="A1B11_B11A1" probability="0"/>
            <routeProbReroute id="A1B11_B11B10" probability="30.0"/>
            <routeProbReroute id="A1B11_B11B12" probability="20.0"/>
            <routeProbReroute id="A1B11_B11C11" probability="50.0"/>
        </interval>
    </rerouter>
    <route id="B10B11_B11A1" edges="B10B11 B11A1"/>
    <route id="B10B11_B11B10" edges="B10B11 B11B10"/>
    <route id="B10B11_B11B12" edges="B10B11 B11B12"/>
    <route id="B10B11_B11C11" edges="B10B11 B11C11"/>
    <rerouter id="rr_B10B11" edges="B10B11">
        <interval begin="0" end="60">
            <routeProbReroute id="B10B11_B11A1" probability="20.0"/>
            <routeProbReroute id="B10B11_B11B10" probability="0"/>
            <routeProbReroute id="B10B11_B11B12" probability="50.0"/>
            <routeProbReroute id="B10B11_B11C11" probability="30.0"/>
        </interval>
    </rerouter>
    <route id="B12B11_B11A1" edges="B12B11 B11A1"/>
    <route id="B12B11_B11B10" edges="B12B11 B11B10"/>
    <route id="B12B11_B11B12" edges="B12B11 B11B12"/>
    <route id="B12B11_B11C11" edges="B12B11 B11C11"/>
    <rerouter id="rr_B12B11" edges="B12B11">
        <interval begin="0" end="60">
            <routeProbReroute id="B12B11_B11A1" probability="30.0"/>
            <routeProbReroute id="B12B11_B11B10" probability="50.0"/>
            <routeProbReroute id="B12B11_B11B12" probability="0"/>
            <routeProbReroute id="B12B11_B11C11" probability="20.0"/>
        </interval>
    </rerouter>
    <route id="C11B11_B11A1" edges="C11B11 B11A1"/>
    <route id="C11B11_B11B10" edges="C11B11 B11B10"/>
    <route id="C11B11_B11B12" edges="C11B11 B11B12"/>
    <route id="C11B11_B11C11" edges="C11B11 B11C11"/>
    <rerouter id="rr_C11B11" edges="C11B11">
        <interval begin="0" end="60">
            <routeProbReroute id="C11B11_B11A1" probability="50.0"/>
            <routeProbReroute id="C11B11_B11B10" probability="20.0"/>
            <routeProbReroute id="C11B11_B11B12" probability="30.0"/>
            <routeProbReroute id="C11B11_B11C11" probability="0"/>
        </interval>
    </rerouter>
    <route id="A1B12_B12A1" edges="A1B12 B12A1"/>
    <route id="A1B12_B12B1" edges="A1B12 B12B1"/>
    <route id="A1B12_B12B11" edges="A1B12 B12B11"/>
    <route id="A1B12_B12C12" edges="A1B12 B12C12"/>
    <rerouter id="rr_A1B12" edges="A1B12">
        <interval begin="0" end="60">
            <routeProbReroute id="A1B12_B12A1" probability="0"/>
            <routeProbReroute id="A1B12_B12B1" probability="20.0"/>
            <routeProbReroute id="A1B12_B12B11" probability="30.0"/>
            <routeProbReroute id="A1B12_B12C12" probability="50.0"/>
        </interval>
    </rerouter>
    <route id="B11B12_B12A1" edges="B11B12 B12A1"/>
    <route id="B11B12_B12B1" edges="B11B12 B12B1"/>
    <route id="B11B12_B12B11" edges="B11B12 B12B11"/>
    <route id="B11B12_B12C12" edges="B11B12 B12C12"/>
    <rerouter id="rr_B11B12" edges="B11B12">
        <interval begin="0" end="60">
            <routeProbReroute id="B11B12_B12A1" probability="20.0"/>
            <routeProbReroute id="B11B12_B12B1" probability="50.0"/>
            <routeProbReroute id="B11B12_B12B11" probability="0"/>
            <routeProbReroute id="B11B12_B12C12" probability="30.0"/>
        </interval>
    </rerouter>
    <route id="B1B12_B12A1" edges="B1B12 B12A1"/>
    <route id="B1B12_B12B1" edges="B1B12 B12B1"/>
    <route id="B1B12_B12B11" edges="B1B12 B12B11"/>
    <route id="B1B12_B12C12" edges="B1B12 B12C12"/>
    <rerouter id="rr_B1B12" edges="B1B12">
        <interval begin="0" end="60">
            <routeProbReroute id="B1B12_B12A1" probability="30.0"/>
            <routeProbReroute id="B1B12_B12B1" probability="0"/>
            <routeProbReroute id="B1B12_B12B11" probability="50.0"/>
            <routeProbReroute id="B1B12_B12C12" probability="20.0"/>
        </interval>
    </rerouter>
    <route id="C12B12_B12A1" edges="C12B12 B12A1"/>
    <route id="C12B12_B12B1" edges="C12B12 B12B1"/>
    <route id="C12B12_B12B11" edges="C12B12 B12B11"/>
    <route id="C12B12_B12C12" edges="C12B12 B12C12"/>
    <rerouter id="rr_C12B12" edges="C12B12">
        <interval begin="0" end="60">
            <routeProbReroute id="C12B12_B12A1" probability="50.0"/>
            <routeProbReroute id="C12B12_B12B1" probability="30.0"/>
            <routeProbReroute id="C12B12_B12B11" probability="20.0"/>
            <routeProbReroute id="C12B12_B12C12" probability="0"/>
        </interval>
    </rerouter>
    <route id="A1B2_B2A1" edges="A1B2 B2A1"/>
    <route id="A1B2_B2B1" edges="A1B2 B2B1"/>
    <route id="A1B2_B2B3" edges="A1B2 B2B3"/>
    <route id="A1B2_B2C2" edges="A1B2 B2C2"/>
    <rerouter id="rr_A1B2" edges="A1B2">
        <interval begin="0" end="60">
            <routeProbReroute id="A1B2_B2A1" probability="0"/>
            <routeProbReroute id="A1B2_B2B1" probability="30.0"/>
            <routeProbReroute id="A1B2_B2B3" probability="20.0"/>
            <routeProbReroute id="A1B2_B2C2" probability="50.0"/>
        </interval>
    </rerouter>
    <route id="B1B2_B2A1" edges="B1B2 B2A1"/>
    <route id="B1B2_B2B1" edges="B1B2 B2B1"/>
    <route id="B1B2_B2B3" edges="B1B2 B2B3"/>
    <route id="B1B2_B2C2" edges="B1B2 B2C2"/>
    <rerouter id="rr_B1B2" edges="B1B2">
        <interval begin="0" end="60">
            <routeProbReroute id="B1B2_B2A1" probability="20.0"/>
            <routeProbReroute id="B1B2_B2B1" probability="0"/>
            <routeProbReroute id="B1B2_B2B3" probability="50.0"/>
            <routeProbReroute id="B1B2_B2C2" probability="30.0"/>
        </interval>
    </rerouter>
    <route id="B3B2_B2A1" edges="B3B2 B2A1"/>
    <route id="B3B2_B2B1" edges="B3B2 B2B1"/>
    <route id="B3B2_B2B3" edges="B3B2 B2B3"/>
    <route id="B3B2_B2C2" edges="B3B2 B2C2"/>
    <rerouter id="rr_B3B2" edges="B3B2">
        <interval begin="0" end="60">
            <routeProbReroute id="B3B2_B2A1" probability="30.0"/>
            <routeProbReroute id="B3B2_B2B1" probability="50.0"/>
            <routeProbReroute id="B3B2_B2B3" probability="0"/>
            <routeProbReroute id="B3B2_B2C2" probability="20.0"/>
        </interval>
    </rerouter>
    <route id="C2B2_B2A1" edges="C2B2 B2A1"/>
    <route id="C2B2_B2B1" edges="C2B2 B2B1"/>
    <route id="C2B2_B2B3" edges="C2B2 B2B3"/>
    <route id="C2B2_B2C2" edges="C2B2 B2C2"/>
    <rerouter id="rr_C2B2" edges="C2B2">
        <interval begin="0" end="60">
            <routeProbReroute id="C2B2_B2A1" probability="50.0"/>
            <routeProbReroute id="C2B2_B2B1" probability="20.0"/>
            <routeProbReroute id="C2B2_B2B3" probability="30.0"/>
            <routeProbReroute id="C2B2_B2C2" probability="0"/>
        </interval>
    </rerouter>
    <route id="A1B3_B3A1" edges="A1B3 B3A1"/>
    <route id="A1B3_B3B2" edges="A1B3 B3B2"/>
    <route id="A1B3_B3B4" edges="A1B3 B3B4"/>
    <route id="A1B3_B3C3" edges="A1B3 B3C3"/>
    <rerouter id="rr_A1B3" edges="A1B3">