<?xml version="1.0" encoding="UTF-8"?>

<!-- generated on 11/29/21 18:12:21 by Eclipse SUMO netgenerate Version 1.7.0
<configuration xmlns:xsi="http://www.w3.org/2001/XMLSchema-instance" xsi:noNamespaceSchemaLocation="http://sumo.dlr.de/xsd/netgenerateConfiguration.xsd">

    <spider_network>
        <spider value="true"/>
        <spider.arm-number value="12"/>
        <spider.circle-number value="2"/>
        <spider.space-radius value="100"/>
    </spider_network>

    <output>
        <output-file value="spider.net.xml"/>
    </output>

</configuration>
-->

<net version="1.6" junctionCornerDetail="5" limitTurnSpeed="5.50" xmlns:xsi="http://www.w3.org/2001/XMLSchema-instance" xsi:noNamespaceSchemaLocation="http://sumo.dlr.de/xsd/net_file.xsd">

    <location netOffset="200.00,200.00" convBoundary="0.00,0.00,400.00,400.00" origBoundary="-200.00,-200.00,200.00,200.00" projParameter="!"/>

    <edge id=":A1_0" function="internal">
        <lane id=":A1_0_0" index="0" speed="5.53" length="11.20" shape="198.40,215.94 198.09,212.12 197.15,210.62 195.60,211.45 193.41,214.61"/>
    </edge>
    <edge id=":A1_1" function="internal">
        <lane id=":A1_1_0" index="0" speed="7.64" length="17.97" shape="198.40,215.94 197.69,210.59 195.55,207.71 191.98,207.30 186.99,209.36"/>
    </edge>
    <edge id=":A1_2" function="internal">
        <lane id=":A1_2_0" index="0" speed="10.08" length="23.13" shape="198.40,215.94 197.50,209.67 194.81,205.19 190.33,202.50 184.06,201.60"/>
    </edge>
    <edge id=":A1_3" function="internal">
        <lane id=":A1_3_0" index="0" speed="13.89" length="27.32" shape="198.40,215.94 197.59,208.90 195.15,202.80 191.08,197.64 185.39,193.41"/>
    </edge>
    <edge id=":A1_4" function="internal">
        <lane id=":A1_4_0" index="0" speed="13.89" length="30.06" shape="198.40,215.94 197.54,209.92 195.46,201.22 192.91,192.64 190.64,186.99"/>
    </edge>
    <edge id=":A1_5" function="internal">
        <lane id=":A1_5_0" index="0" speed="13.89" length="31.89" shape="198.40,215.94 198.40,184.06"/>
    </edge>
    <edge id=":A1_6" function="internal">
        <lane id=":A1_6_0" index="0" speed="13.89" length="31.72" shape="198.40,215.94 199.33,209.67 201.56,200.42 204.25,191.29 206.59,185.39"/>
    </edge>
    <edge id=":A1_7" function="internal">
        <lane id=":A1_7_0" index="0" speed="13.89" length="30.68" shape="198.40,215.94 199.31,208.04 202.05,201.18 206.62,195.39 213.01,190.64"/>
    </edge>
    <edge id=":A1_8" function="internal">
        <lane id=":A1_8_0" index="0" speed="11.10" length="28.29" shape="198.40,215.94 199.50,208.27 202.79,202.79 208.27,199.50 215.94,198.40"/>
    </edge>
    <edge id=":A1_9" function="internal">
        <lane id=":A1_9_0" index="0" speed="8.22" length="21.03" shape="198.40,215.94 200.17,211.41 204.48,207.76 209.80,205.85 214.61,206.59"/>
    </edge>
    <edge id=":A1_10" function="internal">
        <lane id=":A1_10_0" index="0" speed="5.93" length="13.18" shape="198.40,215.94 199.85,213.43 203.17,211.83 206.85,211.55 209.36,213.01"/>
    </edge>
    <edge id=":A1_11" function="internal">
        <lane id=":A1_11_0" index="0" speed="3.65" length="4.67" shape="198.40,215.94 199.20,214.74 200.00,214.34 200.80,214.74 201.60,215.94"/>
    </edge>
    <edge id=":A1_12" function="internal">
        <lane id=":A1_12_0" index="0" speed="5.53" length="11.20" shape="206.59,214.61 204.40,211.45 202.85,210.62 201.91,212.12 201.60,215.94"/>
    </edge>
    <edge id=":A1_13" function="internal">
        <lane id=":A1_13_0" index="0" speed="7.64" length="17.97" shape="206.59,214.61 203.29,210.33 200.00,208.90 196.71,210.33 193.41,214.61"/>
    </edge>
    <edge id=":A1_14" function="internal">
        <lane id=":A1_14_0" index="0" speed="10.08" length="23.13" shape="206.59,214.61 202.67,209.62 198.10,207.08 192.88,207.00 186.99,209.36"/>
    </edge>
    <edge id=":A1_15" function="internal">
        <lane id=":A1_15_0" index="0" speed="13.89" length="27.32" shape="206.59,214.61 202.36,208.92 197.20,204.85 191.10,202.41 184.06,201.60"/>
    </edge>
    <edge id=":A1_16" function="internal">
        <lane id=":A1_16_0" index="0" speed="13.89" length="30.06" shape="206.59,214.61 202.83,209.82 196.68,203.32 190.18,197.17 185.39,193.41"/>
    </edge>
    <edge id=":A1_17" function="internal">
        <lane id=":A1_17_0" index="0" speed="13.89" length="31.89" shape="206.59,214.61 190.64,186.99"/>
    </edge>
    <edge id=":A1_18" function="internal">
        <lane id=":A1_18_0" index="0" speed="13.89" length="31.72" shape="206.59,214.61 204.25,208.71 201.56,199.58 199.33,190.33 198.40,184.06"/>
    </edge>
    <edge id=":A1_19" function="internal">
        <lane id=":A1_19_0" index="0" speed="13.89" length="30.68" shape="206.59,214.61 203.42,207.30 202.37,200.00 203.42,192.70 206.59,185.39"/>
    </edge>
    <edge id=":A1_20" function="internal">
        <lane id=":A1_20_0" index="0" speed="11.10" length="28.29" shape="206.59,214.61 203.70,207.41 203.81,201.02 206.91,195.43 213.01,190.64"/>
    </edge>
    <edge id=":A1_21" function="internal">
        <lane id=":A1_21_0" index="0" speed="8.22" length="21.03" shape="206.59,214.61 205.85,209.80 207.76,204.48 211.41,200.17 215.94,198.40"/>
    </edge>
    <edge id=":A1_22" function="internal">
        <lane id=":A1_22_0" index="0" speed="5.93" length="13.18" shape="206.59,214.61 206.58,211.71 208.66,208.66 211.71,206.58 214.61,206.59"/>
    </edge>
    <edge id=":A1_23" function="internal">
        <lane id=":A1_23_0" index="0" speed="3.65" length="4.67" shape="206.59,214.61 206.68,213.17 207.17,212.42 208.06,212.37 209.36,213.01"/>
    </edge>
    <edge id=":A1_24" function="internal">
        <lane id=":A1_24_0" index="0" speed="5.53" length="11.20" shape="213.01,209.36 209.54,207.72 207.78,207.78 207.72,209.54 209.36,213.01"/>
    </edge>
    <edge id=":A1_25" function="internal">
        <lane id=":A1_25_0" index="0" speed="7.64" length="17.97" shape="213.01,209.36 208.02,207.30 204.45,207.71 202.31,210.59 201.60,215.94"/>
    </edge>
    <edge id=":A1_26" function="internal">
        <lane id=":A1_26_0" index="0" speed="10.08" length="23.13" shape="213.01,209.36 207.12,207.00 201.90,207.08 197.33,209.62 193.41,214.61"/>
    </edge>
    <edge id=":A1_27" function="internal">
        <lane id=":A1_27_0" index="0" speed="13.89" length="27.32" shape="213.01,209.36 206.50,206.54 200.00,205.60 193.50,206.54 186.99,209.36"/>
    </edge>
    <edge id=":A1_28" function="internal">
        <lane id=":A1_28_0" index="0" speed="13.89" length="30.06" shape="213.01,209.36 207.36,207.09 198.78,204.54 190.08,202.46 184.06,201.60"/>
    </edge>
    <edge id=":A1_29" function="internal">
        <lane id=":A1_29_0" index="0" speed="13.89" length="31.89" shape="213.01,209.36 185.39,193.41"/>
    </edge>
    <edge id=":A1_30" function="internal">
        <lane id=":A1_30_0" index="0" speed="13.89" length="31.72" shape="213.01,209.36 208.04,205.42 201.14,198.86 194.58,191.96 190.64,186.99"/>
    </edge>
    <edge id=":A1_31" function="internal">
        <lane id=":A1_31_0" index="0" speed="13.89" length="30.68" shape="213.01,209.36 206.62,204.61 202.05,198.82 199.31,191.96 198.40,184.06"/>
    </edge>
    <edge id=":A1_32" function="internal">
        <lane id=":A1_32_0" index="0" speed="11.10" length="28.29" shape="213.01,209.36 206.91,204.57 203.81,198.98 203.70,192.59 206.59,185.39"/>
    </edge>
    <edge id=":A1_33" function="internal">
        <lane id=":A1_33_0" index="0" speed="8.22" length="21.03" shape="213.01,209.36 209.97,205.56 208.95,200.00 209.97,194.44 213.01,190.64"/>
    </edge>
    <edge id=":A1_34" function="internal">
        <lane id=":A1_34_0" index="0" speed="5.93" length="13.18" shape="213.01,209.36 211.55,206.85 211.83,203.17 213.43,199.85 215.94,198.40"/>
    </edge>
    <edge id=":A1_35" function="internal">
        <lane id=":A1_35_0" index="0" speed="3.65" length="4.67" shape="213.01,209.36 212.37,208.06 212.42,207.17 213.17,206.68 214.61,206.59"/>
    </edge>
    <edge id=":A1_36" function="internal">
        <lane id=":A1_36_0" index="0" speed="5.53" length="11.20" shape="215.94,201.60 212.12,201.91 210.62,202.85 211.45,204.40 214.61,206.59"/>
    </edge>
    <edge id=":A1_37" function="internal">
        <lane id=":A1_37_0" index="0" speed="7.64" length="17.97" shape="215.94,201.60 210.59,202.31 207.71,204.45 207.30,208.02 209.36,213.01"/>
    </edge>
    <edge id=":A1_38" function="internal">
        <lane id=":A1_38_0" index="0" speed="10.08" length="23.13" shape="215.94,201.60 209.67,202.50 205.19,205.19 202.50,209.67 201.60,215.94"/>
    </edge>
    <edge id=":A1_39" function="internal">
        <lane id=":A1_39_0" index="0" speed="13.89" length="27.32" shape="215.94,201.60 208.90,202.41 202.80,204.85 197.64,208.92 193.41,214.61"/>
    </edge>
    <edge id=":A1_40" function="internal">
        <lane id=":A1_40_0" index="0" speed="13.89" length="30.06" shape="215.94,201.60 209.92,202.46 201.22,204.54 192.64,207.09 186.99,209.36"/>
    </edge>
    <edge id=":A1_41" function="internal">
        <lane id=":A1_41_0" index="0" speed="13.89" length="31.89" shape="215.94,201.60 184.06,201.60"/>
    </edge>
    <edge id=":A1_42" function="internal">
        <lane id=":A1_42_0" index="0" speed="13.89" length="31.72" shape="215.94,201.60 209.67,200.67 200.42,198.44 191.29,195.75 185.39,193.41"/>
    </edge>
    <edge id=":A1_43" function="internal">
        <lane id=":A1_43_0" index="0" speed="13.89" length="30.68" shape="215.94,201.60 208.04,200.69 201.18,197.95 195.39,193.38 190.64,186.99"/>
    </edge>
    <edge id=":A1_44" function="internal">
        <lane id=":A1_44_0" index="0" speed="11.10" length="28.29" shape="215.94,201.60 208.27,200.50 202.79,197.21 199.50,191.73 198.40,184.06"/>
    </edge>
    <edge id=":A1_45" function="internal">
        <lane id=":A1_45_0" index="0" speed="8.22" length="21.03" shape="215.94,201.60 211.41,199.83 207.76,195.52 205.85,190.20 206.59,185.39"/>
    </edge>
    <edge id=":A1_46" function="internal">
        <lane id=":A1_46_0" index="0" speed="5.93" length="13.18" shape="215.94,201.60 213.43,200.15 211.83,196.83 211.55,193.15 213.01,190.64"/>
    </edge>
    <edge id=":A1_47" function="internal">
        <lane id=":A1_47_0" index="0" speed="3.65" length="4.67" shape="215.94,201.60 214.74,200.80 214.34,200.00 214.74,199.20 215.94,198.40"/>
    </edge>
    <edge id=":A1_48" function="internal">
        <lane id=":A1_48_0" index="0" speed="5.53" length="11.20" shape="214.61,193.41 211.45,195.60 210.62,197.15 212.12,198.09 215.94,198.40"/>
    </edge>
    <edge id=":A1_49" function="internal">
        <lane id=":A1_49_0" index="0" speed="7.64" length="17.97" shape="214.61,193.41 210.33,196.71 208.90,200.00 210.33,203.29 214.61,206.59"/>
    </edge>
    <edge id=":A1_50" function="internal">
        <lane id=":A1_50_0" index="0" speed="10.08" length="23.13" shape="214.61,193.41 209.62,197.33 207.08,201.90 207.00,207.12 209.36,213.01"/>
    </edge>
    <edge id=":A1_51" function="internal">
        <lane id=":A1_51_0" index="0" speed="13.89" length="27.32" shape="214.61,193.41 208.92,197.64 204.85,202.80 202.41,208.90 201.60,215.94"/>
    </edge>
    <edge id=":A1_52" function="internal">
        <lane id=":A1_52_0" index="0" speed="13.89" length="30.06" shape="214.61,193.41 209.82,197.17 203.32,203.32 197.17,209.82 193.41,214.61"/>
    </edge>
    <edge id=":A1_53" function="internal">
        <lane id=":A1_53_0" index="0" speed="13.89" length="31.89" shape="214.61,193.41 186.99,209.36"/>
    </edge>
    <edge id=":A1_54" function="internal">
        <lane id=":A1_54_0" index="0" speed="13.89" length="31.72" shape="214.61,193.41 208.71,195.75 199.58,198.44 190.33,200.67 184.06,201.60"/>
    </edge>
    <edge id=":A1_55" function="internal">
        <lane id=":A1_55_0" index="0" speed="13.89" length="30.68" shape="214.61,193.41 207.30,196.58 200.00,197.63 192.70,196.58 185.39,193.41"/>
    </edge>
    <edge id=":A1_56" function="internal">
        <lane id=":A1_56_0" index="0" speed="11.10" length="28.29" shape="214.61,193.41 207.41,196.30 201.02,196.19 195.43,193.09 190.64,186.99"/>
    </edge>
    <edge id=":A1_57" function="internal">
        <lane id=":A1_57_0" index="0" speed="8.22" length="21.03" shape="214.61,193.41 209.80,194.15 204.48,192.24 200.17,188.59 198.40,184.06"/>
    </edge>
    <edge id=":A1_58" function="internal">
        <lane id=":A1_58_0" index="0" speed="5.93" length="13.18" shape="214.61,193.41 211.71,193.42 208.66,191.34 206.58,188.29 206.59,185.39"/>
    </edge>
    <edge id=":A1_59" function="internal">
        <lane id=":A1_59_0" index="0" speed="3.65" length="4.67" shape="214.61,193.41 213.17,193.32 212.42,192.83 212.37,191.94 213.01,190.64"/>
    </edge>
    <edge id=":A1_60" function="internal">
        <lane id=":A1_60_0" index="0" speed="5.53" length="11.20" shape="209.36,186.99 207.72,190.46 207.78,192.22 209.54,192.28 213.01,190.64"/>
    </edge>
    <edge id=":A1_61" function="internal">
        <lane id=":A1_61_0" index="0" speed="7.64" length="17.97" shape="209.36,186.99 207.30,191.98 207.71,195.55 210.59,197.69 215.94,198.40"/>
    </edge>
    <edge id=":A1_62" function="internal">
        <lane id=":A1_62_0" index="0" speed="10.08" length="23.13" shape="209.36,186.99 207.00,192.88 207.08,198.10 209.62,202.67 214.61,206.59"/>
    </edge>
    <edge id=":A1_63" function="internal">
        <lane id=":A1_63_0" index="0" speed="13.89" length="27.32" shape="209.36,186.99 206.54,193.50 205.60,200.00 206.54,206.50 209.36,213.01"/>
    </edge>
    <edge id=":A1_64" function="internal">
        <lane id=":A1_64_0" index="0" speed="13.89" length="30.06" shape="209.36,186.99 207.09,192.64 204.54,201.22 202.46,209.92 201.60,215.94"/>
    </edge>
    <edge id=":A1_65" function="internal">
        <lane id=":A1_65_0" index="0" speed="13.89" length="31.89" shape="209.36,186.99 193.41,214.61"/>
    </edge>
    <edge id=":A1_66" function="internal">
        <lane id=":A1_66_0" index="0" speed="13.89" length="31.72" shape="209.36,186.99 205.42,191.96 198.86,198.86 191.96,205.42 186.99,209.36"/>
    </edge>
    <edge id=":A1_67" function="internal">
        <lane id=":A1_67_0" index="0" speed="13.89" length="30.68" shape="209.36,186.99 204.61,193.38 198.82,197.95 191.96,200.69 184.06,201.60"/>
    </edge>
    <edge id=":A1_68" function="internal">
        <lane id=":A1_68_0" index="0" speed="11.10" length="28.29" shape="209.36,186.99 204.57,193.09 198.98,196.19 192.59,196.30 185.39,193.41"/>
    </edge>
    <edge id=":A1_69" function="internal">
        <lane id=":A1_69_0" index="0" speed="8.22" length="21.03" shape="209.36,186.99 205.56,190.03 200.00,191.05 194.44,190.03 190.64,186.99"/>
    </edge>
    <edge id=":A1_70" function="internal">
        <lane id=":A1_70_0" index="0" speed="5.93" length="13.18" shape="209.36,186.99 206.85,188.45 203.17,188.17 199.85,186.57 198.40,184.06"/>
    </edge>
    <edge id=":A1_71" function="internal">
        <lane id=":A1_71_0" index="0" speed="3.65" length="4.67" shape="209.36,186.99 208.06,187.63 207.17,187.58 206.68,186.83 206.59,185.39"/>
    </edge>
    <edge id=":A1_72" function="internal">
        <lane id=":A1_72_0" index="0" speed="5.53" length="11.20" shape="201.60,184.06 201.91,187.88 202.85,189.38 204.40,188.55 206.59,185.39"/>
    </edge>
    <edge id=":A1_73" function="internal">
        <lane id=":A1_73_0" index="0" speed="7.64" length="17.97" shape="201.60,184.06 202.31,189.41 204.45,192.29 208.02,192.70 213.01,190.64"/>
    </edge>
    <edge id=":A1_74" function="internal">
        <lane id=":A1_74_0" index="0" speed="10.08" length="23.13" shape="201.60,184.06 202.50,190.33 205.19,194.81 209.67,197.50 215.94,198.40"/>
    </edge>
    <edge id=":A1_75" function="internal">
        <lane id=":A1_75_0" index="0" speed="13.89" length="27.32" shape="201.60,184.06 202.41,191.10 204.85,197.20 208.92,202.36 214.61,206.59"/>
    </edge>
    <edge id=":A1_76" function="internal">
        <lane id=":A1_76_0" index="0" speed="13.89" length="30.06" shape="201.60,184.06 202.46,190.08 204.54,198.78 207.09,207.36 209.36,213.01"/>
    </edge>
    <edge id=":A1_77" function="internal">
        <lane id=":A1_77_0" index="0" speed="13.89" length="31.89" shape="201.60,184.06 201.60,215.94"/>
    </edge>
    <edge id=":A1_78" function="internal">
        <lane id=":A1_78_0" index="0" speed="13.89" length="31.72" shape="201.60,184.06 200.67,190.33 198.44,199.58 195.75,208.71 193.41,214.61"/>
    </edge>
    <edge id=":A1_79" function="internal">
        <lane id=":A1_79_0" index="0" speed="13.89" length="30.68" shape="201.60,184.06 200.69,191.96 197.95,198.82 193.38,204.61 186.99,209.36"/>
    </edge>
    <edge id=":A1_80" function="internal">
        <lane id=":A1_80_0" index="0" speed="11.10" length="28.29" shape="201.60,184.06 200.50,191.73 197.21,197.21 191.73,200.50 184.06,201.60"/>
    </edge>
    <edge id=":A1_81" function="internal">
        <lane id=":A1_81_0" index="0" speed="8.22" length="21.03" shape="201.60,184.06 199.83,188.59 195.52,192.24 190.20,194.15 185.39,193.41"/>
    </edge>
    <edge id=":A1_82" function="internal">
        <lane id=":A1_82_0" index="0" speed="5.93" length="13.18" shape="201.60,184.06 200.15,186.57 196.83,188.17 193.15,188.45 190.64,186.99"/>
    </edge>
    <edge id=":A1_83" function="internal">
        <lane id=":A1_83_0" index="0" speed="3.65" length="4.67" shape="201.60,184.06 200.80,185.26 200.00,185.66 199.20,185.26 198.40,184.06"/>
    </edge>
    <edge id=":A1_84" function="internal">
        <lane id=":A1_84_0" index="0" speed="5.53" length="11.20" shape="193.41,185.39 195.60,188.55 197.15,189.38 198.09,187.88 198.40,184.06"/>
    </edge>
    <edge id=":A1_85" function="internal">
        <lane id=":A1_85_0" index="0" speed="7.64" length="17.97" shape="193.41,185.39 196.71,189.67 200.00,191.10 203.29,189.67 206.59,185.39"/>
    </edge>
    <edge id=":A1_86" function="internal">
        <lane id=":A1_86_0" index="0" speed="10.08" length="23.13" shape="193.41,185.39 197.33,190.38 201.90,192.92 207.12,193.00 213.01,190.64"/>
    </edge>
    <edge id=":A1_87" function="internal">
        <lane id=":A1_87_0" index="0" speed="13.89" length="27.32" shape="193.41,185.39 197.64,191.08 202.80,195.15 208.90,197.59 215.94,198.40"/>
    </edge>
    <edge id=":A1_88" function="internal">
        <lane id=":A1_88_0" index="0" speed="13.89" length="30.06" shape="193.41,185.39 197.17,190.18 203.32,196.68 209.82,202.83 214.61,206.59"/>
    </edge>
    <edge id=":A1_89" function="internal">
        <lane id=":A1_89_0" index="0" speed="13.89" length="31.89" shape="193.41,185.39 209.36,213.01"/>
    </edge>
    <edge id=":A1_90" function="internal">
        <lane id=":A1_90_0" index="0" speed="13.89" length="31.72" shape="193.41,185.39 195.75,191.29 198.44,200.42 200.67,209.67 201.60,215.94"/>
    </edge>
    <edge id=":A1_91" function="internal">
        <lane id=":A1_91_0" index="0" speed="13.89" length="30.68" shape="193.41,185.39 196.58,192.70 197.63,200.00 196.58,207.30 193.41,214.61"/>
    </edge>
    <edge id=":A1_92" function="internal">
        <lane id=":A1_92_0" index="0" speed="11.10" length="28.29" shape="193.41,185.39 196.30,192.59 196.19,198.98 193.09,204.57 186.99,209.36"/>
    </edge>
    <edge id=":A1_93" function="internal">
        <lane id=":A1_93_0" index="0" speed="8.22" length="21.03" shape="193.41,185.39 194.15,190.20 192.24,195.52 188.59,199.83 184.06,201.60"/>
    </edge>
    <edge id=":A1_94" function="internal">
        <lane id=":A1_94_0" index="0" speed="5.93" length="13.18" shape="193.41,185.39 193.42,188.29 191.34,191.34 188.29,193.42 185.39,193.41"/>
    </edge>
    <edge id=":A1_95" function="internal">
        <lane id=":A1_95_0" index="0" speed="3.65" length="4.67" shape="193.41,185.39 193.32,186.83 192.83,187.58 191.94,187.63 190.64,186.99"/>
    </edge>
    <edge id=":A1_96" function="internal">
        <lane id=":A1_96_0" index="0" speed="5.53" length="11.20" shape="186.99,190.64 190.46,192.28 192.22,192.22 192.28,190.46 190.64,186.99"/>
    </edge>
    <edge id=":A1_97" function="internal">
        <lane id=":A1_97_0" index="0" speed="7.64" length="17.97" shape="186.99,190.64 191.98,192.70 195.55,192.29 197.69,189.41 198.40,184.06"/>
    </edge>
    <edge id=":A1_98" function="internal">
        <lane id=":A1_98_0" index="0" speed="10.08" length="23.13" shape="186.99,190.64 192.88,193.00 198.10,192.92 202.67,190.38 206.59,185.39"/>
    </edge>
    <edge id=":A1_99" function="internal">
        <lane id=":A1_99_0" index="0" speed="13.89" length="27.32" shape="186.99,190.64 193.50,193.46 200.00,194.40 206.50,193.46 213.01,190.64"/>
    </edge>
    <edge id=":A1_100" function="internal">
        <lane id=":A1_100_0" index="0" speed="13.89" length="30.06" shape="186.99,190.64 192.64,192.91 201.22,195.46 209.92,197.54 215.94,198.40"/>
    </edge>
    <edge id=":A1_101" function="internal">
        <lane id=":A1_101_0" index="0" speed="13.89" length="31.89" shape="186.99,190.64 214.61,206.59"/>
    </edge>
    <edge id=":A1_102" function="internal">
        <lane id=":A1_102_0" index="0" speed="13.89" length="31.72" shape="186.99,190.64 191.96,194.58 198.86,201.14 205.42,208.04 209.36,213.01"/>
    </edge>
    <edge id=":A1_103" function="internal">
        <lane id=":A1_103_0" index="0" speed="13.89" length="30.68" shape="186.99,190.64 193.38,195.39 197.95,201.18 200.69,208.04 201.60,215.94"/>
    </edge>
    <edge id=":A1_104" function="internal">
        <lane id=":A1_104_0" index="0" speed="11.10" length="28.29" shape="186.99,190.64 193.09,195.43 196.19,201.02 196.30,207.41 193.41,214.61"/>
    </edge>
    <edge id=":A1_105" function="internal">
        <lane id=":A1_105_0" index="0" speed="8.22" length="21.03" shape="186.99,190.64 190.03,194.44 191.05,200.00 190.03,205.56 186.99,209.36"/>
    </edge>
    <edge id=":A1_106" function="internal">
        <lane id=":A1_106_0" index="0" speed="5.93" length="13.18" shape="186.99,190.64 188.45,193.15 188.17,196.83 186.57,200.15 184.06,201.60"/>
    </edge>
    <edge id=":A1_107" function="internal">
        <lane id=":A1_107_0" index="0" speed="3.65" length="4.67" shape="186.99,190.64 187.63,191.94 187.58,192.83 186.83,193.32 185.39,193.41"/>
    </edge>
    <edge id=":A1_108" function="internal">
        <lane id=":A1_108_0" index="0" speed="5.53" length="11.20" shape="184.06,198.40 187.88,198.09 189.38,197.15 188.55,195.60 185.39,193.41"/>
    </edge>
    <edge id=":A1_109" function="internal">
        <lane id=":A1_109_0" index="0" speed="7.64" length="17.97" shape="184.06,198.40 189.41,197.69 192.29,195.55 192.70,191.98 190.64,186.99"/>
    </edge>
    <edge id=":A1_110" function="internal">
        <lane id=":A1_110_0" index="0" speed="10.08" length="23.13" shape="184.06,198.40 190.33,197.50 194.81,194.81 197.50,190.33 198.40,184.06"/>
    </edge>
    <edge id=":A1_111" function="internal">
        <lane id=":A1_111_0" index="0" speed="13.89" length="27.32" shape="184.06,198.40 191.10,197.59 197.20,195.15 202.36,191.08 206.59,185.39"/>
    </edge>
    <edge id=":A1_112" function="internal">
        <lane id=":A1_112_0" index="0" speed="13.89" length="30.06" shape="184.06,198.40 190.08,197.54 198.78,195.46 207.36,192.91 213.01,190.64"/>
    </edge>
    <edge id=":A1_113" function="internal">
        <lane id=":A1_113_0" index="0" speed="13.89" length="31.89" shape="184.06,198.40 215.94,198.40"/>
    </edge>
    <edge id=":A1_114" function="internal">
        <lane id=":A1_114_0" index="0" speed="13.89" length="31.72" shape="184.06,198.40 190.33,199.33 199.58,201.56 208.71,204.25 214.61,206.59"/>
    </edge>
    <edge id=":A1_115" function="internal">
        <lane id=":A1_115_0" index="0" speed="13.89" length="30.68" shape="184.06,198.40 191.96,199.31 198.82,202.05 204.61,206.62 209.36,213.01"/>
    </edge>
    <edge id=":A1_116" function="internal">
        <lane id=":A1_116_0" index="0" speed="11.10" length="28.29" shape="184.06,198.40 191.73,199.50 197.21,202.79 200.50,208.27 201.60,215.94"/>
    </edge>
    <edge id=":A1_117" function="internal">
        <lane id=":A1_117_0" index="0" speed="8.22" length="21.03" shape="184.06,198.40 188.59,200.17 192.24,204.48 194.15,209.80 193.41,214.61"/>
    </edge>
    <edge id=":A1_118" function="internal">
        <lane id=":A1_118_0" index="0" speed="5.93" length="13.18" shape="184.06,198.40 186.57,199.85 188.17,203.17 188.45,206.85 186.99,209.36"/>
    </edge>
    <edge id=":A1_119" function="internal">
        <lane id=":A1_119_0" index="0" speed="3.65" length="4.67" shape="184.06,198.40 185.26,199.20 185.66,200.00 185.26,200.80 184.06,201.60"/>
    </edge>
    <edge id=":A1_120" function="internal">
        <lane id=":A1_120_0" index="0" speed="5.53" length="11.20" shape="185.39,206.59 188.55,204.40 189.38,202.85 187.88,201.91 184.06,201.60"/>
    </edge>
    <edge id=":A1_121" function="internal">
        <lane id=":A1_121_0" index="0" speed="7.64" length="17.97" shape="185.39,206.59 189.67,203.29 191.10,200.00 189.67,196.71 185.39,193.41"/>
    </edge>
    <edge id=":A1_122" function="internal">
        <lane id=":A1_122_0" index="0" speed="10.08" length="23.13" shape="185.39,206.59 190.38,202.67 192.92,198.10 193.00,192.88 190.64,186.99"/>
    </edge>
    <edge id=":A1_123" function="internal">
        <lane id=":A1_123_0" index="0" speed="13.89" length="27.32" shape="185.39,206.59 191.08,202.36 195.15,197.20 197.59,191.10 198.40,184.06"/>
    </edge>
    <edge id=":A1_124" function="internal">
        <lane id=":A1_124_0" index="0" speed="13.89" length="30.06" shape="185.39,206.59 190.18,202.83 196.68,196.68 202.83,190.18 206.59,185.39"/>
    </edge>
    <edge id=":A1_125" function="internal">
        <lane id=":A1_125_0" index="0" speed="13.89" length="31.89" shape="185.39,206.59 213.01,190.64"/>
    </edge>
    <edge id=":A1_126" function="internal">
        <lane id=":A1_126_0" index="0" speed="13.89" length="31.72" shape="185.39,206.59 191.29,204.25 200.42,201.56 209.67,199.33 215.94,198.40"/>
    </edge>
    <edge id=":A1_127" function="internal">
        <lane id=":A1_127_0" index="0" speed="13.89" length="30.68" shape="185.39,206.59 192.70,203.42 200.00,202.37 207.30,203.42 214.61,206.59"/>
    </edge>
    <edge id=":A1_128" function="internal">
        <lane id=":A1_128_0" index="0" speed="11.10" length="28.29" shape="185.39,206.59 192.59,203.70 198.98,203.81 204.57,206.91 209.36,213.01"/>
    </edge>
    <edge id=":A1_129" function="internal">
        <lane id=":A1_129_0" index="0" speed="8.22" length="21.03" shape="185.39,206.59 190.20,205.85 195.52,207.76 199.83,211.41 201.60,215.94"/>
    </edge>
    <edge id=":A1_130" function="internal">
        <lane id=":A1_130_0" index="0" speed="5.93" length="13.18" shape="185.39,206.59 188.29,206.58 191.34,208.66 193.42,211.71 193.41,214.61"/>
    </edge>
    <edge id=":A1_131" function="internal">
        <lane id=":A1_131_0" index="0" speed="3.65" length="4.67" shape="185.39,206.59 186.83,206.68 187.58,207.17 187.63,208.06 186.99,209.36"/>
    </edge>
    <edge id=":A1_132" function="internal">
        <lane id=":A1_132_0" index="0" speed="5.53" length="11.20" shape="190.64,213.01 192.28,209.54 192.22,207.78 190.46,207.72 186.99,209.36"/>
    </edge>
    <edge id=":A1_133" function="internal">
        <lane id=":A1_133_0" index="0" speed="7.64" length="17.97" shape="190.64,213.01 192.70,208.02 192.29,204.45 189.41,202.31 184.06,201.60"/>
    </edge>
    <edge id=":A1_134" function="internal">
        <lane id=":A1_134_0" index="0" speed="10.08" length="23.13" shape="190.64,213.01 193.00,207.12 192.92,201.90 190.38,197.33 185.39,193.41"/>
    </edge>
    <edge id=":A1_135" function="internal">
        <lane id=":A1_135_0" index="0" speed="13.89" length="27.32" shape="190.64,213.01 193.46,206.50 194.40,200.00 193.46,193.50 190.64,186.99"/>
    </edge>
    <edge id=":A1_136" function="internal">
        <lane id=":A1_136_0" index="0" speed="13.89" length="30.06" shape="190.64,213.01 192.91,207.36 195.46,198.78 197.54,190.08 198.40,184.06"/>
    </edge>
    <edge id=":A1_137" function="internal">
        <lane id=":A1_137_0" index="0" speed="13.89" length="31.89" shape="190.64,213.01 206.59,185.39"/>
    </edge>
    <edge id=":A1_138" function="internal">
        <lane id=":A1_138_0" index="0" speed="13.89" length="31.72" shape="190.64,213.01 194.58,208.04 201.14,201.14 208.04,194.58 213.01,190.64"/>
    </edge>
    <edge id=":A1_139" function="internal">
        <lane id=":A1_139_0" index="0" speed="13.89" length="30.68" shape="190.64,213.01 195.39,206.62 201.18,202.05 208.04,199.31 215.94,198.40"/>
    </edge>
    <edge id=":A1_140" function="internal">
        <lane id=":A1_140_0" index="0" speed="10.82" length="26.79" shape="190.64,213.01 195.12,208.40 201.49,205.56 208.42,204.84 214.61,206.59"/>
    </edge>
    <edge id=":A1_141" function="internal">
        <lane id=":A1_141_0" index="0" speed="8.22" length="21.03" shape="190.64,213.01 194.44,209.97 200.00,208.95 205.56,209.97 209.36,213.01"/>
    </edge>
    <edge id=":A1_142" function="internal">
        <lane id=":A1_142_0" index="0" speed="5.93" length="13.18" shape="190.64,213.01 193.15,211.55 196.83,211.83 200.15,213.43 201.60,215.94"/>
    </edge>
    <edge id=":A1_143" function="internal">
        <lane id=":A1_143_0" index="0" speed="3.65" length="4.67" shape="190.64,213.01 191.94,212.37 192.83,212.42 193.32,213.17 193.41,214.61"/>
    </edge>
    <edge id=":B1_0" function="internal">
        <lane id=":B1_0_0" index="0" speed="7.72" length="10.51" shape="306.46,201.60 304.06,202.02 302.09,203.28 300.54,205.37 299.43,208.31"/>
    </edge>
    <edge id=":B1_1" function="internal">
        <lane id=":B1_1_0" index="0" speed="13.89" length="14.63" shape="306.46,201.60 291.83,201.60"/>
    </edge>
    <edge id=":B1_2" function="internal">
        <lane id=":B1_2_0" index="0" speed="9.04" length="5.58" shape="306.46,201.60 302.94,201.03 301.21,200.00"/>